tests/fuzzer/corpus_json/21_random_012.json
{
  "version": "1.0",
  "type": "input",
  "is_batch": false,
  "attributes": {},
  "data": {
    "node": [
      {
        "id": 0,
        "u_rated": 10000.0
      },
      {
        "id": 1,
        "u_rated": 10000.0
      },
      {
        "id": 2,
        "u_rated": 10000.0
      },
      {
        "id": 3,
        "u_rated": 10000.0
      },
      {
        "id": 4,
        "u_rated": 10000.0
      },
      {
        "id": 5,
        "u_rated": 10000.0
      },
      {
        "id": 6,
        "u_rated": 10000.0
      },
      {
        "id": 7,
        "u_rated": 10000.0
      },
      {
        "id": 8,
        "u_rated": 10000.0
      }
    ],
    "source": [
      {
        "id": 9,
        "node": 0,
        "status": 1,
        "u_ref": 1.0332820942249676,
        "u_ref_angle": 0.0,
        "sk": 657506755.4069896,
        "rx_ratio": 0.07130017646268388,
        "z01_ratio": 1.0
      },
      {
        "id": 10,
        "node": 8,
        "status": 1,
        "u_ref": 1.0,
        "u_ref_angle": 0.0,
        "sk": 374817016.6141581,
        "rx_ratio": 0.1,
        "z01_ratio": 1.0
      }
    ],
    "line": [
      {
        "id": 11,
        "from_node": 0,
        "to_node": 1,
        "from_status": 1,
        "to_status": 1,
        "r1": 1.370240697391657,
        "x1": 4.051740261175419,
        "c1": 6.905926530386846e-07,
        "tan1": 0.0,
        "r0": 0.3,
        "x0": 0.3,
        "c0": 1e-09,
        "tan0": 0.0,
        "i_n": 605.4424683404558
      },
      {
        "id": 12,
        "from_node": 1,
        "to_node": 2,
        "from_status": 1,
        "to_status": 1,
        "r1": 2.79095023876674,
        "x1": 3.306605429360005,
        "c1": 1.4530279471010299e-07,
        "tan1": 0.0,
        "r0": 0.3,
        "x0": 0.3,
        "c0": 1e-09,
        "tan0": 0.0,
        "i_n": 445.6542440055221
      },
      {
        "id": 13,
        "from_node": 2,
        "to_node": 3,
        "from_status": 1,
        "to_status": 1,
        "r1": 0.8113366119444432,
        "x1": 4.529864907646613,
        "c1": 5.882432741086607e-08,
        "tan1": 0.0,
        "r0": 0.3,
        "x0": 0.3,
        "c0": 1e-09,
        "tan0": 0.0,
        "i_n": 820.6319265636596
      },
      {
        "id": 14,
        "from_node": 3,
        "to_node": 4,
        "from_status": 1,
        "to_status": 1,
        "r1": 0.37304816817938735,
        "x1": 3.4347275204677086,
        "c1": 3.369995927917676e-07,
        "tan1": 0.0,
        "r0": 0.3,
        "x0": 0.3,
        "c0": 1e-09,
        "tan0": 0.0,
        "i_n": 410.5681402973626
      },
      {
        "id": 15,
        "from_node": 4,
        "to_node": 5,
        "from_status": 1,
        "to_status": 1,
        "r1": 4.212016839062809,
        "x1": 0.09302150156001388,
        "c1": 6.078469618896886e-08,
        "tan1": 0.0,
        "r0": 0.3,
        "x0": 0.3,
        "c0": 1e-09,
        "tan0": 0.0,
        "i_n": 915.8833069758474
      },
      {
        "id": 16,
        "from_node": 5,
        "to_node": 6,
        "from_status": 1,
        "to_status": 1,
        "r1": 2.544629582138507,
        "x1": 0.4548899452929167,
        "c1": 9.871339904055696e-07,
        "tan1": 0.0,
        "r0": 0.3,
        "x0": 0.3,
        "c0": 1e-09,
        "tan0": 0.0,
        "i_n": 947.245888555838
      },
      {
        "id": 17,
        "from_node": 6,
        "to_node": 7,
        "from_status": 1,
        "to_status": 1,
        "r1": 0.5626381807351322,
        "x1": 2.116033061270468,
        "c1": 1.3506950094916401e-07,
        "tan1": 0.0,
        "r0": 0.3,
        "x0": 0.3,
        "c0": 1e-09,
        "tan0": 0.0,
        "i_n": 319.4152872503455
      },
      {
        "id": 18,
        "from_node": 7,
        "to_node": 8,
        "from_status": 1,
        "to_status": 1,
        "r1": 3.1072597413571614,
        "x1": 0.8176206415949067,
        "c1": 6.968344888506455e-07,
        "tan1": 0.0,
        "r0": 0.3,
        "x0": 0.3,
        "c0": 1e-09,
        "tan0": 0.0,
        "i_n": 60.83978399335475
      }
    ],
    "sym_load": [
      {
        "id": 19,
        "node": 1,
        "status": 1,
        "type": 0,
        "p_specified": -19896.26048886926,
        "q_specified": -1623.1957572476676
      },
      {
        "id": 20,
        "node": 2,
        "status": 1,
        "type": 1,
        "p_specified": 21859.279848011414,
        "q_specified": 822.9832396647889
      },
      {
        "id": 21,
        "node": 4,
        "status": 1,
        "type": 0,
        "p_specified": 95260.7539106987,
        "q_specified": 3271.9208689874013
      },
      {
        "id": 22,
        "node": 5,
        "status": 1,
        "type": 1,
        "p_specified": 73226.36498527892,
        "q_specified": -2288.1162652711846
      },
      {
        "id": 23,
        "node": 6,
        "status": 1,
        "type": 1,
        "p_specified": -53005.51453943156,
        "q_specified": -2733.5524005791513
      },
      {
        "id": 24,
        "node": 7,
        "status": 1,
        "type": 2,
        "p_specified": -64118.30629685036,
        "q_specified": -2381.6943433034994
      }
    ],
    "shunt": [
      {
        "id": 25,
        "node": 0,
        "status": 1,
        "g1": 2.57409455043669e-06,
        "b1": 3.513087097889641e-05,
        "g0": 0.0001,
        "b0": 0.0001
      }
    ]
  }
}